*-----------------------------------------------------------------------------------------------------------------------------
*ngSpice Netlist code

*N=1

* CMOS Chain Inverter simulation

.include tsmc018.txt

.subckt cinv IN OUT VDD GND
mn1 OUT IN GND GND CMOSN W=0.2u L=0.18u PD=0.7u AD=0.06p PS=0.7u AS=0.06p
mp1 OUT IN VDD VDD CMOSP W=0.6u L=0.18u PD=1.5u AD=0.09p PS=1.5u AS=0.09p
.ends

*N=1
x1 1 2 vdd1 0 cinv m=1
x2 2 3 vdd2 0 cinv m=1024

vdd1 VDD1 0 1.8
vdd2 VDD2 0 1.8
vin 1 0 pulse(0 1.8 1n 10p 10p 1n 2n) 
.control
op
tran 10p 5n
let P=vdd1*vdd1#branch
meas tran ener INTEG P from=0 to=2n

.endc

*-----------------------------------------------------------------------------------------------------------------------------
*N=2

* CMOS Chain Inverter simulation

.include tsmc018.txt

.subckt cinv IN OUT VDD GND
mn1 OUT IN GND GND CMOSN W=0.2u L=0.18u PD=0.7u AD=0.06p PS=0.7u AS=0.06p
mp1 OUT IN VDD VDD CMOSP W=0.6u L=0.18u PD=1.5u AD=0.09p PS=1.5u AS=0.09p
.ends

*N=2
x3 4 5 vdd3 0 cinv  m=1
x4 5 6 vdd4 0 cinv m=2.691800385
x5 6 7 vdd5 0 cinv m=1024


vdd3 VDD3 0 1.8
vdd4 VDD4 0 1.8
vdd5 VDD5 0 1.8
vin 4 0 pulse(0 1.8 1n 10p 10p 1n 2n) 
.control
op
tran 10p 5n
let P=vdd3*vdd3#branch+vdd4*vdd4#branch
meas tran ener INTEG P from=0 to=2n

.endc
*-----------------------------------------------------------------------------------------------------------------------------
*N=3

* CMOS Chain Inverter simulation

.include tsmc018.txt

.subckt cinv IN OUT VDD GND
mn1 OUT IN GND GND CMOSN W=0.2u L=0.18u PD=0.7u AD=0.06p PS=0.7u AS=0.06p
mp1 OUT IN VDD VDD CMOSP W=0.6u L=0.18u PD=1.5u AD=0.09p PS=1.5u AS=0.09p
.ends

*N=3
x6 8 9 vdd6 0 cinv  m=1
x7 9 10 vdd7 0 cinv m=2.691800385
x8 10 11 vdd8 0 cinv m=7.245789314
x9 11 12 vdd9 0 cinv m=1024


vdd6 VDD6 0 1.8
vdd7 VDD7 0 1.8
vdd8 VDD8 0 1.8
vdd9 VDD9 0 1.8
vin 8 0 pulse(0 1.8 1n 10p 10p 1n 2n) 
.control
op
tran 10p 5n
let P=vdd6*vdd6#branch+vdd7*vdd7#branch+vdd8*vdd8#branch
meas tran ener INTEG P from=0 to=2n

.endc
*-----------------------------------------------------------------------------------------------------------------------------
*N=4

* CMOS Chain Inverter simulation

.include tsmc018.txt

.subckt cinv IN OUT VDD GND
mn1 OUT IN GND GND CMOSN W=0.2u L=0.18u PD=0.7u AD=0.06p PS=0.7u AS=0.06p
mp1 OUT IN VDD VDD CMOSP W=0.6u L=0.18u PD=1.5u AD=0.09p PS=1.5u AS=0.09p
.ends

*N=4
x10 13 14 vdd10 0 cinv  m=1
x11 14 15 vdd11 0 cinv m=2.691800385
x12 15 16 vdd12 0 cinv m=7.245789314
x13 16 17 vdd13 0 cinv m=19.50421847
x14 17 18 vdd14 0 cinv m=1024


vdd10 VDD10 0 1.8
vdd11 VDD11 0 1.8
vdd12 VDD12 0 1.8
vdd13 VDD13 0 1.8
vdd14 VDD14 0 1.8
vin 13 0 pulse(0 1.8 1n 10p 10p 1n 2n) 
.control
op
tran 10p 5n
let P=vdd10*vdd10#branch+vdd11*vdd11#branch+vdd12*vdd12#branch+vdd13*vdd13#branch
meas tran ener INTEG P from=0 to=2n

.endc
*-----------------------------------------------------------------------------------------------------------------------------
*N=5

* CMOS Chain Inverter simulation

.include tsmc018.txt

.subckt cinv IN OUT VDD GND
mn1 OUT IN GND GND CMOSN W=0.2u L=0.18u PD=0.7u AD=0.06p PS=0.7u AS=0.06p
mp1 OUT IN VDD VDD CMOSP W=0.6u L=0.18u PD=1.5u AD=0.09p PS=1.5u AS=0.09p
.ends

*N=5
x15 19 20 vdd15 0 cinv m= 1
x16 20 21 vdd16 0 cinv m= 2.691800385
x17 21 22 vdd17 0 cinv m= 7.245789314
x18 22 23 vdd18 0 cinv m= 19.50421847
x19 23 24 vdd19 0 cinv m= 52.50146278
x20 24 25 vdd20 0 cinv m= 1024


vdd15 VDD15 0 1.8
vdd16 VDD16 0 1.8
vdd17 VDD17 0 1.8
vdd18 VDD18 0 1.8
vdd19 VDD19 0 1.8
vdd20 VDD20 0 1.8
vin 19 0 pulse(0 1.8 1n 10p 10p 1n 2n) 
.control
op
tran 10p 5n
let P=vdd15*vdd15#branch+vdd16*vdd16#branch+vdd17*vdd17#branch+vdd18*vdd18#branch+vdd19*vdd19#branch
meas tran ener INTEG P from=0 to=2n

.endc
*-----------------------------------------------------------------------------------------------------------------------------
*N=6

* CMOS Chain Inverter simulation

.include tsmc018.txt

.subckt cinv IN OUT VDD GND
mn1 OUT IN GND GND CMOSN W=0.2u L=0.18u PD=0.7u AD=0.06p PS=0.7u AS=0.06p
mp1 OUT IN VDD VDD CMOSP W=0.6u L=0.18u PD=1.5u AD=0.09p PS=1.5u AS=0.09p
.ends


*N=6
x21 26 27 vdd21 0 cinv m= 1
x22 27 28 vdd22 0 cinv m= 2.691800385
x23 28 29 vdd23 0 cinv m= 7.245789314
x24 29 30 vdd24 0 cinv m= 19.50421847
x25 30 31 vdd25 0 cinv m= 52.50146278
x26 31 32 vdd26 0 cinv m= 141.3234578
x27 32 33 vdd27 0 cinv m= 1024



vdd21 VDD21 0 1.8
vdd22 VDD22 0 1.8
vdd23 VDD23 0 1.8
vdd24 VDD24 0 1.8
vdd25 VDD25 0 1.8
vdd26 VDD26 0 1.8
vdd27 VDD27 0 1.8
vin 26 0 pulse(0 1.8 1n 10p 10p 1n 2n) 
.control
op
tran 10p 5n
let P=vdd21*vdd21#branch+vdd22*vdd22#branch+vdd23*vdd23#branch+vdd24*vdd24#branch+vdd25*vdd25#branch+vdd26*vdd26#branch
meas tran ener INTEG P from=0 to=2n

.endc
*-----------------------------------------------------------------------------------------------------------------------------
*N=7


* CMOS Chain Inverter simulation

.include tsmc018.txt

.subckt cinv IN OUT VDD GND
mn1 OUT IN GND GND CMOSN W=0.2u L=0.18u PD=0.7u AD=0.06p PS=0.7u AS=0.06p
mp1 OUT IN VDD VDD CMOSP W=0.6u L=0.18u PD=1.5u AD=0.09p PS=1.5u AS=0.09p
.ends


*N=7
x28 34 35 vdd28 0 cinv m=1
x29 35 36 vdd29 0 cinv m= 2.691800385
x30 36 37 vdd30 0 cinv m= 7.245789314
x31 37 38 vdd31 0 cinv m= 19.50421847
x32 38 39 vdd32 0 cinv m= 52.50146278
x33 39 40 vdd33 0 cinv m= 141.3234578
x34 40 41 vdd34 0 cinv m= 380.414538
x35 41 42 vdd35 0 cinv m=1024 


vdd28 VDD28 0 1.8
vdd29 VDD29 0 1.8
vdd30 VDD30 0 1.8
vdd31 VDD31 0 1.8
vdd32 VDD32 0 1.8
vdd33 VDD33 0 1.8
vdd34 VDD34 0 1.8
vdd35 VDD35 0 1.8
vin 34 0 pulse(0 1.8 1n 10p 10p 1n 2n) 
.control
op
tran 10p 5n
let P=vdd28*vdd28#branch+vdd29*vdd29#branch+vdd30*vdd30#branch+vdd31*vdd31#branch+vdd32*vdd32#branch+vdd33*vdd33#branch+vdd34*vdd34#branch
meas tran ener INTEG P from=0 to=2n

.endc
